LTspice 24.1.7 for Windows
Circuit: Z:\home\agam\Github\EE2301\sims\sim1\mosfet.net
Start Time: Thu Aug  7 23:47:23 2025
solver = Normal
Maximum thread count: 16
tnom = 27
temp = 27
method = trap
WARNING: Node n003 is floating.

Instance "M1": Length shorter than recommended for a level 1 MOSFET.
Instance "M1": Width narrower than recommended for a level 1 MOSFET.
.OP point found by inspection.
.step VGS=0 
.step VGS=0.2 
.step VGS=0.4 
.step VGS=0.6 
.step VGS=0.8 
.step VGS=1 
.step VGS=1.2 
.step VGS=1.4 
.step VGS=1.6 
.step VGS=1.8 
Total elapsed time: 0.537 seconds.

Files loaded:
Z:\home\agam\Github\EE2301\sims\sim1\mosfet.net
C:\users\agam\AppData\Local\LTspice\lib\cmp\standard.mos

