LTspice 24.1.7 for Windows
Circuit: Z:\home\agam\Github\EE2301\sims\sim3\bjt_ce.net
Start Time: Mon Sep  1 00:02:25 2025
solver = Normal
Maximum thread count: 16
tnom = 27
temp = 27
method = trap
Direct Newton iteration for .op point succeeded.
Total elapsed time: 0.060 seconds.

Files loaded:
Z:\home\agam\Github\EE2301\sims\sim3\bjt_ce.net
C:\users\agam\AppData\Local\LTspice\lib\cmp\standard.bjt

