LTspice 24.1.7 for Windows
Circuit: Z:\home\agam\Github\EE2301\sims\sim3\mosfet_cg.net
Start Time: Mon Sep  1 17:15:57 2025
solver = Normal
Maximum thread count: 16
tnom = 27
temp = 27
method = trap
Direct Newton iteration for .op point succeeded.
Total elapsed time: 0.101 seconds.

Files loaded:
Z:\home\agam\Github\EE2301\sims\sim3\mosfet_cg.net
C:\users\agam\AppData\Local\LTspice\lib\cmp\standard.mos

