LTspice 24.1.7 for Windows
Circuit: Z:\home\agam\Github\EE2301\sims\sim3\mosfet_cs.net
Start Time: Sun Aug 31 18:57:36 2025
solver = Normal
Maximum thread count: 16
tnom = 27
temp = 27
method = trap
Direct Newton iteration for .op point succeeded.
Total elapsed time: 0.103 seconds.

Files loaded:
Z:\home\agam\Github\EE2301\sims\sim3\mosfet_cs.net
C:\users\agam\AppData\Local\LTspice\lib\cmp\standard.mos

