LTspice 24.1.7 for Windows
Circuit: Z:\home\agam\Github\EE2301\sims\sim2\diode.net
Start Time: Mon Aug 18 17:44:28 2025
solver = Normal
Maximum thread count: 16
tnom = 27
temp = 27
method = trap
Direct Newton iteration for .op point succeeded.
Total elapsed time: 0.056 seconds.

Files loaded:
Z:\home\agam\Github\EE2301\sims\sim2\diode.net
C:\users\agam\AppData\Local\LTspice\lib\cmp\standard.dio

