LTspice 24.1.7 for Windows
Circuit: Z:\home\agam\Github\EE2301\sims\sim2\Draft5.net
Start Time: Sat Aug 30 14:15:51 2025
solver = Normal
Maximum thread count: 16
tnom = 27
temp = 27
method = trap
Direct Newton iteration for .op point succeeded.
Total elapsed time: 0.081 seconds.

Files loaded:
Z:\home\agam\Github\EE2301\sims\sim2\Draft5.net
C:\users\agam\AppData\Local\LTspice\lib\cmp\standard.mos

